########## TYPE:               Linker
########## FREQ:               758267
########## CONN_PTS:           2
########## 
@<TRIPOS>MOLECULE
ZINC23550494
 3 2 1 0 0
SMALL
USER_CHARGES
lnk.17

@<TRIPOS>ATOM
      1 Du1         0.0000    0.0000    0.0000 Du      1  <0>         0.0000
      2 S1          1.3409   -1.1335    0.1474 S.3     1  <0>         0.1078
      3 Du2         2.6026   -0.0388    0.8443 Du      1  <0>         0.0000
@<TRIPOS>BOND
     1     1     2    1
     2     2     3    1
@<TRIPOS>SUBSTRUCTURE
     1 <0>         1 TEMP              0 ****  ****    0 ROOT

