########## TYPE:               Linker
########## FREQ:               2292317
########## CONN_PTS:           2
########## 
@<TRIPOS>MOLECULE
ZINC37084212
 8 7 1 0 0
SMALL
USER_CHARGES
lnk.6

@<TRIPOS>ATOM
      1 Du1         0.0000    0.0000    0.0000 Du      1  <0>         0.0000
      2 C3          1.0805   -1.0255   -0.3492 C.3     1  <0>        -0.0975
      3 H1          0.8285   -1.5123   -1.2913 H       1  <0>         0.0949
      4 C4          2.4301   -0.3180   -0.4857 C.3     1  <0>        -0.1834
      5 Du2         1.1649   -2.0752    0.7607 Du      1  <0>         0.0000
      6 H7          3.1724   -1.0211   -0.8637 H       1  <0>         0.0465
      7 H8          2.3341    0.5170   -1.1798 H       1  <0>         0.0941
      8 H9          2.7455    0.0542    0.4890 H       1  <0>         0.0756
@<TRIPOS>BOND
     1     1     2    1
     2     2     3    1
     3     2     4    1
     4     2     5    1
     5     4     6    1
     6     4     7    1
     7     4     8    1
@<TRIPOS>SUBSTRUCTURE
     1 <0>         1 TEMP              0 ****  ****    0 ROOT

