########## TYPE:               Sidechain
########## FREQ:               2769661
########## CONN_PTS:           1
########## 
@<TRIPOS>MOLECULE
ZINC82120991
 6 5 1 0 0
SMALL
USER_CHARGES
sid.4

@<TRIPOS>ATOM
      1 C1         -0.0422    2.0361    1.2283 C.3     1  <0>         0.0257
      2 O1         -0.2852    0.6290    1.1715 O.3     1  <0>        -0.3069
      3 Du1         0.0000    0.0000    0.0000 Du      1  <0>         0.0000
      4 H2          1.0139    2.2303    1.0411 H       1  <0>         0.0555
      5 H3         -0.6439    2.5395    0.4716 H       1  <0>         0.0555
      6 H4         -0.3113    2.4117    2.2155 H       1  <0>         0.1017
@<TRIPOS>BOND
     1     1     2    1
     2     1     4    1
     3     1     5    1
     4     1     6    1
     5     2     3    1
@<TRIPOS>SUBSTRUCTURE
     1 <0>         1 TEMP              0 ****  ****    0 ROOT

