########## TYPE:               Linker
########## FREQ:               790879
########## CONN_PTS:           2
########## 
@<TRIPOS>MOLECULE
ZINC14055722
 12 12 1 0 0
SMALL
USER_CHARGES
lnk.16

@<TRIPOS>ATOM
      1 Du1         0.0000    0.0000    0.0000 Du      1  <0>         0.0000
      2 C2         -1.0592    0.5696    0.6327 C.ar    1  <0>         0.1570
      3 C3         -2.1242   -0.2171    1.0498 C.ar    1  <0>        -0.2260
      4 C4         -3.1995    0.3596    1.6983 C.ar    1  <0>        -0.0520
      5 C5         -3.2214    1.7216    1.9284 C.ar    1  <0>        -0.1846
      6 C6         -2.1607    2.5150    1.5086 C.ar    1  <0>         0.1961
      7 C7         -1.0792    1.9369    0.8571 C.ar    1  <0>        -0.1690
      8 Du2        -2.1826    3.8924    1.7411 Du      1  <0>         0.0000
      9 H5         -2.1103   -1.2821    0.8711 H       1  <0>         0.1314
     10 H6         -4.0246   -0.2556    2.0256 H       1  <0>         0.1332
     11 H7         -4.0632    2.1699    2.4351 H       1  <0>         0.1303
     12 H8         -0.2533    2.5510    0.5300 H       1  <0>         0.1492
@<TRIPOS>BOND
     1     1     2    1
     2     2     7   ar
     3     2     3   ar
     4     3     4   ar
     5     3     9    1
     6     4     5   ar
     7     4    10    1
     8     5     6   ar
     9     5    11    1
    10     6     7   ar
    11     6     8    1
    12     7    12    1
@<TRIPOS>SUBSTRUCTURE
     1 <0>         1 TEMP              0 ****  ****    0 ROOT

