########## TYPE:               Sidechain
########## FREQ:               1118935
########## CONN_PTS:           1
########## 
@<TRIPOS>MOLECULE
ZINC93619019
 11 10 1 0 0
SMALL
USER_CHARGES
sid.14

@<TRIPOS>ATOM
      1 Du1         0.0000    0.0000    0.0000 Du      1  <0>         0.0000
      2 C13        -1.1659    0.7172    0.5332 C.3     1  <0>         0.0066
      3 C14        -2.1109    1.0788   -0.6145 C.3     1  <0>        -0.1850
      4 C15        -1.8995   -0.1761    1.5356 C.3     1  <0>        -0.1819
      5 H20        -0.8352    1.6280    1.0323 H       1  <0>         0.1696
      6 H21        -2.4416    0.1680   -1.1136 H       1  <0>         0.0756
      7 H22        -2.9760    1.6109   -0.2188 H       1  <0>         0.1054
      8 H23        -1.5883    1.7152   -1.3286 H       1  <0>         0.0753
      9 H24        -2.9287    0.1666    1.6424 H       1  <0>         0.0937
     10 H25        -1.8947   -1.2053    1.1766 H       1  <0>         0.0681
     11 H26        -1.3977   -0.1261    2.5019 H       1  <0>         0.1025
@<TRIPOS>BOND
     1     1     2    1
     2     2     3    1
     3     2     4    1
     4     2     5    1
     5     3     6    1
     6     3     7    1
     7     3     8    1
     8     4     9    1
     9     4    10    1
    10     4    11    1
@<TRIPOS>SUBSTRUCTURE
     1 <0>         1 TEMP              0 ****  ****    0 ROOT

