########## TYPE:               Sidechain
########## FREQ:               3142088
########## CONN_PTS:           1
########## 
@<TRIPOS>MOLECULE
ZINC90574612
 8 7 1 0 0
SMALL
USER_CHARGES
sid.3

@<TRIPOS>ATOM
      1 C1          1.9440    0.3263    1.5352 C.3     1  <0>        -0.1560
      2 C2          1.4343    0.5221    0.1060 C.3     1  <0>        -0.1406
      3 Du1         0.0000    0.0000    0.0000 Du      1  <0>         0.0000
      4 H4          2.9885    0.6324    1.5936 H       1  <0>         0.0776
      5 H5          1.3492    0.9317    2.2192 H       1  <0>         0.0665
      6 H6          1.8574   -0.7247    1.8110 H       1  <0>         0.0697
      7 H7          1.4543    1.5827   -0.1448 H       1  <0>         0.0881
      8 H8          2.0729   -0.0270   -0.5860 H       1  <0>         0.0896
@<TRIPOS>BOND
     1     1     2    1
     2     1     4    1
     3     1     5    1
     4     1     6    1
     5     2     3    1
     6     2     7    1
     7     2     8    1
@<TRIPOS>SUBSTRUCTURE
     1 <0>         1 TEMP              0 ****  ****    0 ROOT

