########## TYPE:               Linker
########## FREQ:               281975
########## CONN_PTS:           2
########## 
@<TRIPOS>MOLECULE
ZINC75307435
 17 17 1 0 0
SMALL
USER_CHARGES
lnk.33

@<TRIPOS>ATOM
      1 Du1         0.0000    0.0000    0.0000 Du      1  <0>         0.0000
      2 C6          0.8757   -0.5099    1.1155 C.3     1  <0>        -0.1058
      3 C7          0.6527    0.3407    2.3681 C.3     1  <0>        -0.1323
      4 C8          1.5185   -0.2019    3.5096 C.3     1  <0>         0.1317
      5 N2          2.9156   -0.2569    3.0584 N.am    1  <0>        -0.6288
      6 C9          3.2286   -0.9734    1.8144 C.3     1  <0>         0.1134
      7 C10         2.3437   -0.4223    0.6920 C.3     1  <0>        -0.1153
      8 Du2         3.8916    0.3389    3.7718 Du      1  <0>         0.0000
      9 H12         0.6213   -1.5476    1.3314 H       1  <0>         0.0979
     10 H13         0.9305    1.3740    2.1604 H       1  <0>         0.0764
     11 H14        -0.3977    0.2965    2.6556 H       1  <0>         0.0875
     12 H15         1.4392    0.4579    4.3736 H       1  <0>         0.1005
     13 H16         1.1819   -1.2029    3.7795 H       1  <0>         0.0700
     14 H17         4.2777   -0.8228    1.5600 H       1  <0>         0.0792
     15 H18         3.0315   -2.0374    1.9461 H       1  <0>         0.0735
     16 H19         2.4968   -1.0094   -0.2135 H       1  <0>         0.0820
     17 H20         2.6055    0.6183    0.5000 H       1  <0>         0.0788
@<TRIPOS>BOND
     1     1     2    1
     2     2     7    1
     3     2     3    1
     4     2     9    1
     5     3     4    1
     6     3    10    1
     7     3    11    1
     8     4     5    1
     9     4    12    1
    10     4    13    1
    11     5     6    1
    12     5     8   am
    13     6     7    1
    14     6    14    1
    15     6    15    1
    16     7    16    1
    17     7    17    1
@<TRIPOS>SUBSTRUCTURE
     1 <0>         1 TEMP              0 ****  ****    0 ROOT

