########## TYPE:               Linker
########## FREQ:               1539889
########## CONN_PTS:           2
########## 
@<TRIPOS>MOLECULE
ZINC47633740
 4 3 1 0 0
SMALL
USER_CHARGES
lnk.10

@<TRIPOS>ATOM
      1 Du1         0.0000    0.0000    0.0000 Du      1  <0>         0.0000
      2 C8          0.0430   -1.3293    0.2180 C.2     1  <0>         0.7052
      3 O1         -0.0356   -2.1017   -0.7177 O.2     1  <0>        -0.5875
      4 Du2         0.1730   -1.8025    1.4733 Du      1  <0>         0.0000
@<TRIPOS>BOND
     1     1     2   am
     2     2     3    2
     3     2     4   am
@<TRIPOS>SUBSTRUCTURE
     1 <0>         1 TEMP              0 ****  ****    0 ROOT

