########## TYPE:               Scaffold
########## FREQ:               1577937
########## CONN_PTS:           3
########## 
@<TRIPOS>MOLECULE
ZINC77781215
 5 4 1 0 0
SMALL
USER_CHARGES
scf.9

@<TRIPOS>ATOM
      1 Du1         0.0000    0.0000    0.0000 Du      1  <0>         0.0000
      2 C11        -0.2448   -1.4438    0.0400 C.3     1  <0>         0.2572
      3 H1          0.4051   -1.9426   -0.6790 H       1  <0>         0.1130
      4 Du2         0.0492   -1.9722    1.4454 Du      1  <0>         0.0000
      5 Du3        -1.6847   -1.7191   -0.3091 Du      1  <0>         0.0000
@<TRIPOS>BOND
     1     1     2    1
     2     2     3    1
     3     2     4    1
     4     2     5    1
@<TRIPOS>SUBSTRUCTURE
     1 <0>         1 TEMP              0 ****  ****    0 ROOT

