########## TYPE:               Sidechain
########## FREQ:               457949
########## CONN_PTS:           1
########## 
@<TRIPOS>MOLECULE
ZINC42784337
 12 12 1 0 0
SMALL
USER_CHARGES
sid.24

@<TRIPOS>ATOM
      1 C1          1.2763    2.1529   -0.0007 C.ar    1  <0>        -0.0827
      2 C2          2.4633    2.8607   -0.0082 C.ar    1  <0>        -0.1573
      3 C3          3.6716    2.1848   -0.0234 C.ar    1  <0>         0.1139
      4 C4          3.6892    0.8003   -0.0310 C.ar    1  <0>        -0.1538
      5 C5          2.5009    0.0947   -0.0235 C.ar    1  <0>        -0.0658
      6 C6          1.2951    0.7706   -0.0083 C.ar    1  <0>        -0.1359
      7 Du1         0.0000    0.0000    0.0000 Du      1  <0>         0.0000
      8 F1          4.8326    2.8756   -0.0312 F       1  <0>        -0.1318
      9 H1          0.3338    2.6799    0.0157 H       1  <0>         0.1324
     10 H2          2.4484    3.9406   -0.0026 H       1  <0>         0.1403
     11 H3          4.6311    0.2720   -0.0432 H       1  <0>         0.1408
     12 H4          2.5143   -0.9852   -0.0298 H       1  <0>         0.1397
@<TRIPOS>BOND
     1     1     6   ar
     2     1     2   ar
     3     1     9    1
     4     2     3   ar
     5     2    10    1
     6     3     4   ar
     7     3     8    1
     8     4     5   ar
     9     4    11    1
    10     5     6   ar
    11     5    12    1
    12     6     7    1
@<TRIPOS>SUBSTRUCTURE
     1 <0>         1 TEMP              0 ****  ****    0 ROOT

