########## TYPE:               Sidechain
########## FREQ:               287026
########## CONN_PTS:           1
########## 
@<TRIPOS>MOLECULE
ZINC61974601
 9 9 1 0 0
SMALL
USER_CHARGES
sid.32

@<TRIPOS>ATOM
      1 Du1         0.0000    0.0000    0.0000 Du      1  <0>         0.0000
      2 C15         0.7525    0.9510    0.8946 C.2     1  <0>        -0.0460
      3 C16         2.0267    0.8071    1.3009 C.2     1  <0>        -0.1843
      4 C17         2.3236    1.9204    2.1203 C.2     1  <0>        -0.2150
      5 C18         1.2130    2.6780    2.1657 C.2     1  <0>        -0.0298
      6 O3          0.2665    2.0889    1.4168 O.3     1  <0>        -0.1710
      7 H15         2.6946   -0.0036    1.0499 H       1  <0>         0.1486
      8 H16         3.2619    2.1233    2.6151 H       1  <0>         0.1485
      9 H17         1.1026    3.6048    2.7090 H       1  <0>         0.2010
@<TRIPOS>BOND
     1     1     2    1
     2     2     6    1
     3     2     3    2
     4     3     4    1
     5     3     7    1
     6     4     5    2
     7     4     8    1
     8     5     6    1
     9     5     9    1
@<TRIPOS>SUBSTRUCTURE
     1 <0>         1 TEMP              0 ****  ****    0 ROOT

