########## TYPE:               Sidechain
########## FREQ:               665443
########## CONN_PTS:           1
########## 
@<TRIPOS>MOLECULE
ZINC84209228
 9 9 1 0 0
SMALL
USER_CHARGES
sid.19

@<TRIPOS>ATOM
      1 Du1         0.0000    0.0000    0.0000 Du      1  <0>         0.0000
      2 C15         0.8328    0.1394    1.2483 C.3     1  <0>        -0.0931
      3 C16         1.9054   -0.9213    1.5040 C.3     1  <0>        -0.1564
      4 C17         2.3120    0.4900    1.0752 C.3     1  <0>        -0.1509
      5 H13         0.3158    0.5519    2.1147 H       1  <0>         0.1418
      6 H14         2.0942   -1.2069    2.5388 H       1  <0>         0.1123
      7 H15         2.0087   -1.7199    0.7693 H       1  <0>         0.1054
      8 H16         2.6828    0.6199    0.0585 H       1  <0>         0.0994
      9 H17         2.7682    1.1329    1.8280 H       1  <0>         0.1132
@<TRIPOS>BOND
     1     1     2    1
     2     2     4    1
     3     2     3    1
     4     2     5    1
     5     3     4    1
     6     3     6    1
     7     3     7    1
     8     4     8    1
     9     4     9    1
@<TRIPOS>SUBSTRUCTURE
     1 <0>         1 TEMP              0 ****  ****    0 ROOT

