########## TYPE:               Linker
########## FREQ:               2426422
########## CONN_PTS:           2
########## 
@<TRIPOS>MOLECULE
ZINC77466019
 3 2 1 0 0
SMALL
USER_CHARGES
lnk.5

@<TRIPOS>ATOM
      1 Du1         0.0000    0.0000    0.0000 Du      1  <0>         0.0000
      2 O1          1.3326    0.5140    0.0450 O.3     1  <0>        -0.3102
      3 Du2         1.5860    1.6355   -0.6796 Du      1  <0>         0.0000
@<TRIPOS>BOND
     1     1     2    1
     2     2     3    1
@<TRIPOS>SUBSTRUCTURE
     1 <0>         1 TEMP              0 ****  ****    0 ROOT

