########## TYPE:               Scaffold
########## FREQ:               338851
########## CONN_PTS:           3
########## 
@<TRIPOS>MOLECULE
ZINC78664264
 12 12 1 0 0
SMALL
USER_CHARGES
scf.29

@<TRIPOS>ATOM
      1 Du1         0.0000    0.0000    0.0000 Du      1  <0>         0.0000
      2 C4          0.7907   -0.4334   -1.0719 C.ar    1  <0>         0.1547
      3 C5          2.0468   -0.9760   -0.8335 C.ar    1  <0>        -0.0925
      4 C6          2.8260   -1.4030   -1.8897 C.ar    1  <0>        -0.0711
      5 C7          2.3539   -1.2901   -3.1910 C.ar    1  <0>         0.1556
      6 C8          1.0980   -0.7481   -3.4294 C.ar    1  <0>        -0.0821
      7 C9          0.3164   -0.3258   -2.3725 C.ar    1  <0>        -0.1772
      8 Du3        -1.0490    0.2572   -2.6308 Du      1  <0>         0.0000
      9 Du2         3.1450   -1.7227   -4.2630 Du      1  <0>         0.0000
     10 H6          2.4140   -1.0634    0.1784 H       1  <0>         0.1552
     11 H7          3.8028   -1.8246   -1.7043 H       1  <0>         0.1530
     12 H8          0.7309   -0.6604   -4.4413 H       1  <0>         0.1537
@<TRIPOS>BOND
     1     1     2    1
     2     2     7   ar
     3     2     3   ar
     4     3     4   ar
     5     3    10    1
     6     4     5   ar
     7     4    11    1
     8     5     6   ar
     9     5     9    1
    10     6     7   ar
    11     6    12    1
    12     7     8    1
@<TRIPOS>SUBSTRUCTURE
     1 <0>         1 TEMP              0 ****  ****    0 ROOT

