########## TYPE:               Linker
########## FREQ:               628907
########## CONN_PTS:           2
########## 
@<TRIPOS>MOLECULE
ZINC72371646
 12 12 1 0 0
SMALL
USER_CHARGES
lnk.20

@<TRIPOS>ATOM
      1 Du1         0.0000    0.0000    0.0000 Du      1  <0>         0.0000
      2 C17        -1.2970    0.4040   -0.0625 C.ar    1  <0>         0.1006
      3 C18        -1.7010    1.2922   -1.0464 C.ar    1  <0>        -0.1721
      4 C19        -3.0199    1.7015   -1.1088 C.ar    1  <0>        -0.1164
      5 C20        -3.9384    1.2270   -0.1909 C.ar    1  <0>        -0.1151
      6 C21        -3.5419    0.3411    0.7935 C.ar    1  <0>        -0.1731
      7 C22        -2.2227   -0.0780    0.8579 C.ar    1  <0>         0.0996
      8 Du2        -1.8322   -0.9542    1.8220 Du      1  <0>         0.0000
      9 H20        -0.9853    1.6649   -1.7643 H       1  <0>         0.1342
     10 H21        -3.3335    2.3938   -1.8762 H       1  <0>         0.1282
     11 H22        -4.9678    1.5494   -0.2427 H       1  <0>         0.1282
     12 H23        -4.2612   -0.0278    1.5096 H       1  <0>         0.1358
@<TRIPOS>BOND
     1     1     2    1
     2     2     7   ar
     3     2     3   ar
     4     3     4   ar
     5     3     9    1
     6     4     5   ar
     7     4    10    1
     8     5     6   ar
     9     5    11    1
    10     6     7   ar
    11     6    12    1
    12     7     8    1
@<TRIPOS>SUBSTRUCTURE
     1 <0>         1 TEMP              0 ****  ****    0 ROOT

