########## TYPE:               Sidechain
########## FREQ:               329265
########## CONN_PTS:           1
########## 
@<TRIPOS>MOLECULE
ZINC15827990
 15 15 1 0 0
SMALL
USER_CHARGES
sid.30

@<TRIPOS>ATOM
      1 Du1         0.0000    0.0000    0.0000 Du      1  <0>         0.0000
      2 C14         0.2103   -1.3823   -0.0011 C.ar    1  <0>         0.1333
      3 C15        -0.7658   -2.2345   -0.5013 C.ar    1  <0>        -0.1326
      4 C16        -0.5522   -3.5990   -0.5066 C.ar    1  <0>        -0.1005
      5 C17         0.6267   -4.1178   -0.0033 C.ar    1  <0>        -0.0945
      6 C18         1.5982   -3.2725    0.5007 C.ar    1  <0>        -0.1004
      7 C19         1.3935   -1.9067    0.5033 C.ar    1  <0>        -0.1143
      8 C20         0.8534   -5.6076   -0.0045 C.3     1  <0>        -0.1157
      9 H21        -1.6889   -1.8303   -0.8898 H       1  <0>         0.1292
     10 H22        -1.3088   -4.2618   -0.8998 H       1  <0>         0.1293
     11 H23         2.5178   -3.6809    0.8930 H       1  <0>         0.1282
     12 H24         2.1528   -1.2470    0.8967 H       1  <0>         0.1348
     13 H25         0.4814   -6.0325    0.9278 H       1  <0>         0.0717
     14 H26         0.3229   -6.0552   -0.8449 H       1  <0>         0.0673
     15 H27         1.9199   -5.8127   -0.0972 H       1  <0>         0.0674
@<TRIPOS>BOND
     1     1     2    1
     2     2     7   ar
     3     2     3   ar
     4     3     4   ar
     5     3     9    1
     6     4     5   ar
     7     4    10    1
     8     5     6   ar
     9     5     8    1
    10     6     7   ar
    11     6    11    1
    12     7    12    1
    13     8    13    1
    14     8    14    1
    15     8    15    1
@<TRIPOS>SUBSTRUCTURE
     1 <0>         1 TEMP              0 ****  ****    0 ROOT

