########## TYPE:               Linker
########## FREQ:               1131136
########## CONN_PTS:           2
########## 
@<TRIPOS>MOLECULE
ZINC57019026
 5 4 1 0 0
SMALL
USER_CHARGES
lnk.13

@<TRIPOS>ATOM
      1 Du1         0.0000    0.0000    0.0000 Du      1  <0>         0.0000
      2 S2          0.0026   -1.6516    0.1210 S.o2    1  <0>         2.6897
      3 O3         -1.1974   -2.1055   -0.4898 O.2     1  <0>        -0.9517
      4 O4          1.2863   -2.0879   -0.3044 O.2     1  <0>        -0.9491
      5 Du2        -0.1223   -2.0486    1.8332 Du      1  <0>         0.0000
@<TRIPOS>BOND
     1     1     2    1
     2     2     3    2
     3     2     4    2
     4     2     5    1
@<TRIPOS>SUBSTRUCTURE
     1 <0>         1 TEMP              0 ****  ****    0 ROOT

