########## TYPE:               Linker
########## FREQ:               734031
########## CONN_PTS:           2
########## 
@<TRIPOS>MOLECULE
ZINC94676886
 5 4 1 0 0
SMALL
USER_CHARGES
lnk.18

@<TRIPOS>ATOM
      1 Du1         0.0000    0.0000    0.0000 Du      1  <0>         0.0000
      2 N2          0.9785   -0.8658   -0.6714 N.4     1  <0>        -0.5044
      3 Du2         0.8598   -2.2344   -0.1510 Du      1  <0>         0.0000
      4 H29         0.8008   -0.8671   -1.6646 H       1  <0>         0.4435
      5 H36         1.9099   -0.5193   -0.4968 H       1  <0>         0.4270
@<TRIPOS>BOND
     1     1     2    1
     2     2     3    1
     3     2     4    1
     4     2     5    1
@<TRIPOS>SUBSTRUCTURE
     1 <0>         1 TEMP              0 ****  ****    0 ROOT

