########## TYPE:               Sidechain
########## FREQ:               423631
########## CONN_PTS:           1
########## 
@<TRIPOS>MOLECULE
ZINC90027576
 14 13 1 0 0
SMALL
USER_CHARGES
sid.25

@<TRIPOS>ATOM
      1 C1         -0.6886    1.9953    1.1770 C.3     1  <0>        -0.1869
      2 C2         -0.6645    0.4655    1.1763 C.3     1  <0>         0.1338
      3 C3          0.0823   -0.0333    2.4150 C.3     1  <0>        -0.1871
      4 C4         -2.0987   -0.0672    1.1965 C.3     1  <0>        -0.1398
      5 Du1         0.0000    0.0000    0.0000 Du      1  <0>         0.0000
      6 H1          0.3331    2.3748    1.1626 H       1  <0>         0.0869
      7 H2         -1.2206    2.3507    0.2945 H       1  <0>         0.0600
      8 H3         -1.1954    2.3503    2.0743 H       1  <0>         0.0724
      9 H4         -0.4246    0.3217    3.3124 H       1  <0>         0.0723
     10 H5          0.0995   -1.1232    2.4146 H       1  <0>         0.0598
     11 H6          1.1040    0.3462    2.4007 H       1  <0>         0.0870
     12 H7         -2.6307    0.2882    0.3141 H       1  <0>         0.0670
     13 H8         -2.0815   -1.1570    1.1961 H       1  <0>         0.0668
     14 H9         -2.6055    0.2879    2.0939 H       1  <0>         0.0825
@<TRIPOS>BOND
     1     1     2    1
     2     1     6    1
     3     1     7    1
     4     1     8    1
     5     2     3    1
     6     2     4    1
     7     2     5    1
     8     3     9    1
     9     3    10    1
    10     3    11    1
    11     4    12    1
    12     4    13    1
    13     4    14    1
@<TRIPOS>SUBSTRUCTURE
     1 <0>         1 TEMP              0 ****  ****    0 ROOT

