########## TYPE:               Sidechain
########## FREQ:               345284
########## CONN_PTS:           1
########## 
@<TRIPOS>MOLECULE
ZINC54709302
 9 9 1 0 0
SMALL
USER_CHARGES
sid.28

@<TRIPOS>ATOM
      1 Du1         0.0000    0.0000    0.0000 Du      1  <0>         0.0000
      2 C3          0.7368   -0.4245   -1.2442 C.2     1  <0>        -0.1580
      3 C4          0.2404   -0.9313   -2.3992 C.2     1  <0>        -0.1428
      4 C5          1.1147   -1.2533   -3.4203 C.2     1  <0>        -0.1565
      5 C6          2.4426   -1.0527   -3.2365 C.2     1  <0>        -0.1749
      6 S1          2.4894   -0.3832   -1.5821 S.3     1  <0>         0.0376
      7 H5         -0.8222   -1.0817   -2.5197 H       1  <0>         0.1346
      8 H6          0.7453   -1.6589   -4.3506 H       1  <0>         0.1348
      9 H7          3.2598   -1.2444   -3.9160 H       1  <0>         0.1853
@<TRIPOS>BOND
     1     1     2    1
     2     2     6    1
     3     2     3    2
     4     3     4    1
     5     3     7    1
     6     4     5    2
     7     4     8    1
     8     5     6    1
     9     5     9    1
@<TRIPOS>SUBSTRUCTURE
     1 <0>         1 TEMP              0 ****  ****    0 ROOT

