########## TYPE:               Linker
########## FREQ:               14755002
########## CONN_PTS:           2
########## 
@<TRIPOS>MOLECULE
ZINC28220500
 5 4 1 0 0
SMALL
USER_CHARGES
lnk.0

@<TRIPOS>ATOM
      1 Du1         0.0000    0.0000    0.0000 Du      1  <0>         0.0000
      2 C7         -0.4707   -0.8335    1.1639 C.3     1  <0>         0.1792
      3 Du2        -1.9351   -0.8703    1.1777 Du      1  <0>         0.0000
      4 H5         -0.0792   -1.8566    1.0643 H       1  <0>         0.1099
      5 H6         -0.1062   -0.3912    2.1028 H       1  <0>         0.1013
@<TRIPOS>BOND
     1     1     2    1
     2     2     3    1
     3     2     4    1
     4     2     5    1
@<TRIPOS>SUBSTRUCTURE
     1 <0>         1 TEMP              0 ****  ****    0 ROOT

