########## TYPE:               Sidechain
########## FREQ:               1763908
########## CONN_PTS:           1
########## 
@<TRIPOS>MOLECULE
ZINC21723341
 12 12 1 0 0
SMALL
USER_CHARGES
sid.7

@<TRIPOS>ATOM
      1 Du1         0.0000    0.0000    0.0000 Du      1  <0>         0.0000
      2 C10         0.2085   -0.1363    1.3795 C.ar    1  <0>         0.0947
      3 C11         0.2182   -1.3973    1.9602 C.ar    1  <0>        -0.0942
      4 C12         0.4281   -1.5287    3.3190 C.ar    1  <0>        -0.1037
      5 C13         0.6186   -0.4053    4.1025 C.ar    1  <0>        -0.0964
      6 C14         0.6047    0.8523    3.5277 C.ar    1  <0>        -0.1038
      7 C15         0.4000    0.9897    2.1687 C.ar    1  <0>        -0.0995
      8 H8          0.0654   -2.2748    1.3495 H       1  <0>         0.1323
      9 H9          0.4398   -2.5097    3.7707 H       1  <0>         0.1387
     10 H10         0.7788   -0.5103    5.1653 H       1  <0>         0.1360
     11 H11         0.7538    1.7279    4.1421 H       1  <0>         0.1387
     12 H12         0.3893    1.9722    1.7203 H       1  <0>         0.1336
@<TRIPOS>BOND
     1     1     2    1
     2     2     7   ar
     3     2     3   ar
     4     3     4   ar
     5     3     8    1
     6     4     5   ar
     7     4     9    1
     8     5     6   ar
     9     5    10    1
    10     6     7   ar
    11     6    11    1
    12     7    12    1
@<TRIPOS>SUBSTRUCTURE
     1 <0>         1 TEMP              0 ****  ****    0 ROOT

