########## TYPE:               Sidechain
########## FREQ:               536914
########## CONN_PTS:           1
########## 
@<TRIPOS>MOLECULE
ZINC19642724
 5 4 1 0 0
SMALL
USER_CHARGES
sid.22

@<TRIPOS>ATOM
      1 Du1         0.0000    0.0000    0.0000 Du      1  <0>         0.0000
      2 C18        -0.6984    1.3591   -0.0780 C.3     1  <0>         0.4564
      3 F1         -1.8388    1.3446    0.7322 F       1  <0>        -0.1604
      4 F2          0.1751    2.3583    0.3642 F       1  <0>        -0.1727
      5 F3         -1.0701    1.6171   -1.4018 F       1  <0>        -0.1725
@<TRIPOS>BOND
     1     1     2    1
     2     2     3    1
     3     2     4    1
     4     2     5    1
@<TRIPOS>SUBSTRUCTURE
     1 <0>         1 TEMP              0 ****  ****    0 ROOT

