########## TYPE:               Linker
########## FREQ:               559459
########## CONN_PTS:           2
########## 
@<TRIPOS>MOLECULE
ZINC79504173
 7 6 1 0 0
SMALL
USER_CHARGES
lnk.21

@<TRIPOS>ATOM
      1 C1         -0.0419    2.2041   -1.2565 C.3     1  <0>         0.0726
      2 N1         -0.0220    0.7392   -1.2646 N.am    1  <0>        -0.6202
      3 Du1         0.0000    0.0000    0.0000 Du      1  <0>         0.0000
      4 Du2        -0.0240    0.0717   -2.4354 Du      1  <0>         0.0000
      5 H2          0.9807    2.5814   -1.2643 H       1  <0>         0.0640
      6 H3         -0.5691    2.5652   -2.1396 H       1  <0>         0.0651
      7 H4         -0.5521    2.5556   -0.3597 H       1  <0>         0.0831
@<TRIPOS>BOND
     1     1     2    1
     2     1     5    1
     3     1     6    1
     4     1     7    1
     5     2     3    1
     6     2     4   am
@<TRIPOS>SUBSTRUCTURE
     1 <0>         1 TEMP              0 ****  ****    0 ROOT

