########## TYPE:               Sidechain
########## FREQ:               373936
########## CONN_PTS:           1
########## 
@<TRIPOS>MOLECULE
ZINC12979116
 4 3 1 0 0
SMALL
USER_CHARGES
sid.27

@<TRIPOS>ATOM
      1 Du1         0.0000    0.0000    0.0000 Du      1  <0>         0.0000
      2 N4          0.7586   -0.8971    0.6605 N.am    1  <0>        -0.8401
      3 H25         1.5823   -1.2213    0.2638 H       1  <0>         0.4057
      4 H26         0.4810   -1.2185    1.5326 H       1  <0>         0.4124
@<TRIPOS>BOND
     1     1     2   am
     2     2     3    1
     3     2     4    1
@<TRIPOS>SUBSTRUCTURE
     1 <0>         1 TEMP              0 ****  ****    0 ROOT

