########## TYPE:               Linker
########## FREQ:               1183634
########## CONN_PTS:           2
########## 
@<TRIPOS>MOLECULE
ZINC01399035
 4 3 1 0 0
SMALL
USER_CHARGES
lnk.12

@<TRIPOS>ATOM
      1 Du1         0.0000    0.0000    0.0000 Du      1  <0>         0.0000
      2 C11         0.6892   -0.5113   -1.2036 C.2     1  <0>         0.4654
      3 O1          0.0447   -0.8276   -2.1851 O.2     1  <0>        -0.4692
      4 Du2         2.1569   -0.6377   -1.2142 Du      1  <0>         0.0000
@<TRIPOS>BOND
     1     1     2    1
     2     2     3    2
     3     2     4    1
@<TRIPOS>SUBSTRUCTURE
     1 <0>         1 TEMP              0 ****  ****    0 ROOT

