########## TYPE:               Sidechain
########## FREQ:               281480
########## CONN_PTS:           1
########## 
@<TRIPOS>MOLECULE
ZINC81106210
 7 6 1 0 0
SMALL
USER_CHARGES
sid.34

@<TRIPOS>ATOM
      1 C1         -0.6565    2.0988    1.1325 C.3     1  <0>        -0.1760
      2 C2          0.0248    0.7547    1.1164 C.2     1  <0>         0.5115
      3 O1          0.5954    0.3522    2.1080 O.2     1  <0>        -0.5156
      4 Du1         0.0000    0.0000    0.0000 Du      1  <0>         0.0000
      5 H1          0.0656    2.8753    0.8802 H       1  <0>         0.1001
      6 H2         -1.4661    2.1045    0.4026 H       1  <0>         0.0865
      7 H3         -1.0620    2.2887    2.1262 H       1  <0>         0.0996
@<TRIPOS>BOND
     1     1     2    1
     2     1     5    1
     3     1     6    1
     4     1     7    1
     5     2     3    2
     6     2     4   am
@<TRIPOS>SUBSTRUCTURE
     1 <0>         1 TEMP              0 ****  ****    0 ROOT

