########## TYPE:               Linker
########## FREQ:               1509605
########## CONN_PTS:           2
########## 
@<TRIPOS>MOLECULE
ZINC06876802
 12 12 1 0 0
SMALL
USER_CHARGES
lnk.11

@<TRIPOS>ATOM
      1 Du1         0.0000    0.0000    0.0000 Du      1  <0>         0.0000
      2 C16        -1.3925    0.4617    0.2207 C.ar    1  <0>        -0.0412
      3 C17        -2.4424   -0.4550    0.2089 C.ar    1  <0>        -0.0660
      4 C18        -3.7359   -0.0226    0.4149 C.ar    1  <0>        -0.1488
      5 C19        -3.9925    1.3239    0.6339 C.ar    1  <0>         0.1313
      6 C20        -2.9491    2.2393    0.6462 C.ar    1  <0>        -0.2071
      7 C21        -1.6529    1.8124    0.4461 C.ar    1  <0>        -0.0489
      8 Du2        -5.2682    1.7469    0.8361 Du      1  <0>         0.0000
      9 H23        -2.2434   -1.5027    0.0383 H       1  <0>         0.1322
     10 H24        -4.5499   -0.7323    0.4056 H       1  <0>         0.1354
     11 H25        -3.1520    3.2862    0.8168 H       1  <0>         0.1316
     12 H26        -0.8410    2.5245    0.4599 H       1  <0>         0.1348
@<TRIPOS>BOND
     1     1     2    1
     2     2     7   ar
     3     2     3   ar
     4     3     4   ar
     5     3     9    1
     6     4     5   ar
     7     4    10    1
     8     5     6   ar
     9     5     8    1
    10     6     7   ar
    11     6    11    1
    12     7    12    1
@<TRIPOS>SUBSTRUCTURE
     1 <0>         1 TEMP              0 ****  ****    0 ROOT

