########## TYPE:               Sidechain
########## FREQ:               320287
########## CONN_PTS:           1
########## 
@<TRIPOS>MOLECULE
ZINC19809055
 12 12 1 0 0
SMALL
USER_CHARGES
sid.31

@<TRIPOS>ATOM
      1 Du1         0.0000    0.0000    0.0000 Du      1  <0>         0.0000
      2 C6         -1.1743    0.9445    0.0117 C.ar    1  <0>        -0.1142
      3 C7         -1.7030    1.3746    1.2144 C.ar    1  <0>        -0.0841
      4 C8         -2.7799    2.2409    1.2259 C.ar    1  <0>        -0.1120
      5 C9         -3.3289    2.6774    0.0333 C.ar    1  <0>        -0.0239
      6 C10        -2.7993    2.2466   -1.1701 C.ar    1  <0>        -0.1120
      7 C11        -1.7188    1.3848   -1.1802 C.ar    1  <0>        -0.0841
      8 Cl1        -4.6819    3.7650    0.0468 Cl      1  <0>        -0.0626
      9 H8         -1.2746    1.0335    2.1453 H       1  <0>         0.1362
     10 H9         -3.1931    2.5766    2.1655 H       1  <0>         0.1378
     11 H10        -3.2276    2.5868   -2.1013 H       1  <0>         0.1378
     12 H11        -1.3023    1.0522   -2.1195 H       1  <0>         0.1362
@<TRIPOS>BOND
     1     1     2    1
     2     2     7   ar
     3     2     3   ar
     4     3     4   ar
     5     3     9    1
     6     4     5   ar
     7     4    10    1
     8     5     6   ar
     9     5     8    1
    10     6     7   ar
    11     6    11    1
    12     7    12    1
@<TRIPOS>SUBSTRUCTURE
     1 <0>         1 TEMP              0 ****  ****    0 ROOT

